data/small networks/test_gen_4w_wye_InvControl_p2n.dss
! This case is designed to test a 3-phase, wye-connected generator

Clear

New Circuit.Test phases=3 basekv=0.4 baseMVA=1 bus1=B1 MVASC1=1e6 MVASC3=1e6

New Linecode.Zabcn units=km nphases=4
~ rmatrix=(0.227217624 0.059217624 0.059217624 0.059217624 |0.059217624 0.227217624 0.059217624 0.059217624 |0.059217624 0.059217624 0.227217624 0.059217624 |0.059217624 0.059217624 0.059217624 0.227217624)
~ xmatrix=(0.879326005 0.541069709 0.475545802 0.449141163 |0.541069709 0.879326005 0.516533439 0.475545802 |0.475545802 0.516533439 0.879326005 0.541069709 |0.449141163 0.475545802 0.541069709 0.879326005)
~ cmatrix=(0 | 0 0 | 0 0 0 | 0 0 0 0)
~ Rg = 0
~ Xg = 0

New Line.Line1 bus1=B1.1.2.3.0 bus2=B2.1.2.3.4 linecode=Zabcn length=1 units=km
// New Transformer.TR1 Buses=[B2.1.2.3.4 B3.1.2.3.4] phases=4 Conns=[Wye Wye] kVs=[0.4 0.4] kVAs=[800 800] XHL=0.000001 %Rs=0 %R=0
New Transformer.TR1 Buses=[B2.1.2.3.4 B3.1.2.3.0] phases=3 Conns=[Wye Wye] kVs=[0.4 0.4] kVAs=[800 800] XHL=0.000001 %Rs=0 %R=0

! creates unbalance at B2:
! vm_b2 = [0.964, 1.01, 1.00, 0.05] without other devices active
New Load.Load1  phases=1 bus1=B3.1.0  kv=0.23  model=1 conn=wye kVA=10 pf=0.9 vminpu=0.1 vmaxpu=2
New Load.Load2  phases=1 bus1=B3.2.0  kv=0.23  model=1 conn=wye kVA=5  pf=0.9 vminpu=0.1 vmaxpu=2

// ! this will be converted to a generator in the data model transformation
// ! do not change to anything besides PF=1.0; weird OpenDSS behavior
New PVSystem.PV1 phases=3 conn=wye bus1=B3.1.2.3.0 kv=0.4 kva=40 pf=1.0 irradiance=1 Pmpp=35 %R=0 %X=0 model=1
// New PVSystem.PV1 phases=3 conn=wye bus1=B2.1.2.3.4 kv=0.4 kva=40 pf=1.0 irradiance=1 Pmpp=35 %R=0 %X=0 model=1
New XYCurve.vv_curve npts=4 Yarray=(1.0,1.0,-1.0,-1.0) XArray=(0.5,0.95,1.05,1.5)
New InvControl.InvPVCtrl mode=VOLTVAR voltage_curvex_ref=avg vvc_curve1=vv_curve EventLog=yes VarChangeTolerance=0.0001 VoltageChangeTolerance=0.00001

Set tolerance = 0.00000001
Set voltagebases=[0.4]
Calcvoltagebases

Solve